1mg/circuit_control.dss
clear
set defaultbasefrequency=60
new object=circuit.lehigh basekv=115 pu=1.0001 phases=3 bus1=sourcebus angle=30 mvasc3=20000 mvasc1=21000
edit object=vsource.source basekv=115 bus1=sourcebus.1.2.3 pu=1.00 r1=0 x1=0.0001 r0=0 x0=0.0001
new object=vsource.secondsource basekv=4.16 bus1=680.1.2.3 pu=1.00 r1=0 x1=0.0001 r0=0 x0=0.0001
new object=transformer.sub phases=3 windings=2 xhl=0.008 buses=[sourcebus.1.2.3,650.1.2.3] conns=[delta,wye] kvs=[115,4.16] kvas=[5000,5000] %rs=[0.0005,0.0005]
new object=transformer.reg1 phases=1 bank=reg1 xhl=0.01 kvas=[1666,1666] buses=[650.1,rg60.1] kvs=[2.4,2.4] %loadloss=0.01
new object=regcontrol.reg1 transformer=reg1 winding=2 vreg=121 band=2 ptratio=20 ctprim=700 r=3 x=9
new object=transformer.reg2 phases=1 bank=reg1 xhl=0.01 kvas=[1666,1666] buses=[650.2,rg60.2] kvs=[2.4,2.4] %loadloss=0.01
new object=regcontrol.reg2 transformer=reg2 winding=2 vreg=121 band=2 ptratio=20 ctprim=700 r=3 x=9
new object=transformer.reg3 phases=1 bank=reg1 xhl=0.01 kvas=[1666,1666] buses=[650.3,rg60.3] kvs=[2.4,2.4] %loadloss=0.01
new object=regcontrol.reg3 transformer=reg3 winding=2 vreg=121 band=2 ptratio=20 ctprim=700 r=3 x=9
new object=transformer.xfm1 phases=3 windings=2 xhl=2 buses=[633.1.2.3,634.1.2.3] conns=[wye,wye] kvs=[4.16,0.480] kvas=[500,500] %rs=[0.55,0.55] xht=1 xlt=1
new object=linecode.mtx601 nphases=3 basefreq=60 rmatrix=[0.3465|0.1560,0.3375|0.1580,0.1535,0.3414] xmatrix=[1.0179|0.5017,1.0478|0.4236,0.3849,1.0348] units=mi
new object=linecode.mtx602 nphases=3 basefreq=60 rmatrix=[0.7526|0.1580,0.7475|0.1560,0.1535,0.7436] xmatrix=[1.1814|0.4236,1.1983|0.5017,0.3849,1.2112] units=mi
new object=linecode.mtx603 nphases=2 basefreq=60 rmatrix=[1.3238|0.2066,1.3294] xmatrix=[1.3569|0.4591,1.3471] units=mi
new object=linecode.mtx604 nphases=2 basefreq=60 rmatrix=[1.3238|0.2066,1.3294] xmatrix=[1.3569|0.4591,1.3471] units=mi
new object=linecode.mtx605 nphases=1 basefreq=60 rmatrix=[1.3292] xmatrix=[1.3475] units=mi
new object=linecode.mtx606 nphases=3 units=mi rmatrix=[0.791721|0.318476,0.781649|0.28345,0.318476,0.791721] xmatrix=[0.438352|0.0276838,0.396697|-0.0184204,0.0276838,0.438352] cmatrix=[383.948|0,383.948|0,0,383.948]
new object=linecode.mtx607 nphases=1 basefreq=60 rmatrix=[1.3425] xmatrix=[0.5124] cmatrix=[236] units=mi
new object=loadshape.solar_670_shape npts=8760 interval=1 useactual=yes mult=[0.0,0.0,0.0,0.0,0.0,0.0,0.0,0.0,35.25727116628018,106.89963323150705,150.90086603675516,463.70361340858864,106.33607691367928,248.49298131146648,371.7520109912318,400.24024247048,199.97905538153026,13.256654763656108,0.0,0.0,0.0,0.0,0.0,0.0,0.0,0.0,0.0,0.0,0.0,0.0,0.0,0.0,92.5151587351844,234.95419484039095,328.8793050156613,12.97452305623671,705.9911113508507,252.4421181183269,916.6883432262737,630.3996124787633,332.8284418225217,28.487524382236884,0.0,0.0,0.0,0.0,0.0,0.0,0.0,0.0,0.0,0.0,0.0,0.0,0.0,0.0,271.3399928363488,632.6559590411074,840.5332880363586,356.2390096652317,633.5023541633657,631.8095639188491,516.1659690483742,448.1899049855774,235.2363265478104,18.61574301060243,0.0,0.0,0.0,0.0,0.0,0.0,0.0,0.0,0.0,0.0,0.0,0.0,0.0,0.0,412.9326338192971,946.0222627307685,1343.160470613657,1591.0891885102847,1685.578562100394,1641.013772977318,1443.5724887685406,1106.51348552875,603.039907829193,118.46420484765785,0.0,0.0,0.0,0.0,0.0,0.0,0.0,0.0,0.0,0.0,0.0,0.0,0.0,0.0,449.03630010783564,1001.8701988595868,1409.7258761393573,1656.8081989137268,1747.0670110865674,1685.2964303929748,1473.7528033952935,1123.4371453918468,608.6811277835587,115.64359487047498,0.0,0.0,0.0,0.0,0.0,0.0,0.0,0.0,0.0,0.0,0.0,0.0,0.0,0.0,354.8290582251458,840.251156328939,1317.2114245011835,1180.4129012533322,1334.4158018776782,1376.4428198280018,1381.8019080749482,1048.4099099345983,567.5005049554933,106.05394520625993,0.0,0.0,0.0,0.0,0.0,0.0,0.0,0.0,0.0,0.0,0.0,0.0,0.0,0.0,360.1881464720922,357.6496682023287,1278.0050165280431,1465.8559439755948,1312.6980242794846,1256.8507952476773,1059.4095110388994,541.5514588430199,286.00659904009075,30.462446334172643,0.0,0.0,0.0,0.0,0.0,0.0,0.0,0.0,0.0,0.0,0.0,0.0,0.0,0.0,366.67576154871614,854.9184696296923,225.64667688359532,297.28903894882217,665.3747519376243,770.8644337290452,631.5281393084408,409.26633581686724,217.18484695204674,25.10335808722632,0.0,0.0,0.0,0.0,0.0,0.0,0.0,0.0,0.0,0.0,0.0,0.0,0.0,0.0,376.82967462776975,865.0716756117349,463.70361340858864,986.3571975335867,772.5572239735617,360.7524098869308,462.575086578911,386.98358770682364,200.54331879636902,94.77150529752848,0.0,0.0,0.0,0.0,0.0,0.0,0.0,0.0,0.0,0.0,0.0,0.0,0.0,0.0,174.59356558688452,431.5490839269106,695.2729348569578,1191.6953411620634,691.6059297575168,903.1495567551981,917.2526066411124,740.1198556874533,412.9326338192971,72.48875718748505,0.0,0.0,0.0,0.0,0.0,0.0,0.0,0.0,0.0,0.0,0.0,0.0,0.0,0.0,454.67752006220115,1006.3828919842748,1408.5980564066904,1650.8855543489526,1740.0158396921154,1685.578562100394,1488.7022484034658,1158.9765482655466,687.939631755087,169.5166090473576,0.0,0.0,0.0,0.0,0.0,0.0,0.0,0.0,0.0,0.0,0.0,0.0,0.0,0.0,419.9845123107599,953.9198292474783,1338.647070391958,1623.244425088974,1722.5279164141793,1684.1686106603079,1492.3685464058956,1129.9240533714599,671.862367014248,166.97813077759412,0.0,0.0,0.0,0.0,0.0,0.0,0.0,0.0,0.0,0.0,0.0,0.0,0.0,0.0,410.95841896437247,943.2016527535857,1328.2110256054848,1225.260529180838,1360.0834233797432,1236.8243936999775,1116.103842289976,890.4571654063808,528.2948040793638,127.77242990146458,0.0,0.0,0.0,0.0,0.0,0.0,0.0,0.0,0.0,0.0,0.0,0.0,0.0,0.0,171.20939929187398,405.5993307174261,735.0428991479262,936.9968764813924,1073.5125609248137,985.2286707039093,582.7320816710853,474.4217899024812,267.6729877369077,43.71910109782875,0.0,0.0,0.0,0.0,0.0,0.0,0.0,0.0,0.0,0.0,0.0,0.0,0.0,0.0,90.25881217284036,242.28749794226204,1125.4113602467717,1402.9568364523252,1620.4231080147792,1607.4485849585435,1435.9570539592498,1121.180798829503,653.5280486140539,165.28604763008883,0.0,0.0,0.0,0.0,0.0,0.0,0.0,0.0,0.0,0.0,0.0,0.0,0.0,0.0,373.7269329431677,868.4565490037565,1224.9776903764075,1035.9989431961894,1217.6443872745365,1585.4479685559193,958.1510977617579,437.75386019910417,245.10810791944485,44.28336451266754,0.0,0.0,0.0,0.0,0.0,0.0,0.0,0.0,0.0,0.0,0.0,0.0,0.0,0.0,386.41932429198494,929.381441672102,1356.6992570847328,1653.4240326187162,1716.3231401419864,1672.321907336738,1485.035243304025,1168.5661979297615,684.2726266556459,178.26057068632554,0.0,0.0,0.0,0.0,0.0,0.0,0.0,0.0,0.0,0.0,0.0,0.0,0.0,0.0,421.95872716568454,950.5356629524678,1375.315000095335,1628.8849379463284,1730.4254829308893,1686.9892206374911,1514.0870311011004,1185.4898577928586,696.4014616866356,183.9017906406913,0.0,0.0,0.0,0.0,0.0,0.0,0.0,0.0,0.0,0.0,0.0,0.0,0.0,0.0,445.0878703979861,997.9210620527265,1399.5719630603032,1638.7567193179627,1795.2995124060953,1749.323357648911,1554.7033905143273,1189.1568628922998,731.6587328529158,200.54331879636902,0.0,0.0,0.0,0.0,0.0,0.0,0.0,0.0,0.0,0.0,0.0,0.0,0.0,0.0,436.90817217385694,974.5104942100163,1362.6219016495068,1595.601881634973,1682.757952123211,1632.2698113383506,1455.1370603846908,1147.4119766493955,695.2729348569578,187.00453232529355,0.0,0.0,0.0,0.0,0.0,0.0,0.0,0.0,0.0,0.0,0.0,0.0,0.0,0.0,112.54085318587272,281.776037622822,426.753551997792,243.69815647935903,706.5553747656894,188.4144837653794,196.59418198950854,2.820609977182857,0.0,0.0,0.0,0.0,0.0,0.0,0.0,0.0,0.0,0.0,0.0,0.0,0.0,0.0,0.0,0.0,103.79759864391586,304.90447375811266,861.6875093167242,920.3546412287033,1737.4773614223516,1699.9637436937273,803.3010949181427,696.9650180044632,405.31719901000673,89.97668046542096,0.0,0.0,0.0,0.0,0.0,0.0,0.0,0.0,0.0,0.0,0.0,0.0,0.0,0.0,117.33638511499136,304.3409174402849,353.7005313954682,880.3032523273268,1857.3522248071067,1826.0440904476873,1629.731333068587,1286.4668464595916,776.2235219759916,220.0054569292296,0.0,0.0,0.0,0.0,0.0,0.0,0.0,0.0,0.0,0.0,0.0,0.0,0.0,0.0,465.3956965560938,1024.7165032874582,1428.0594874425399,1669.7827219699634,1770.4782860262885,1727.6055800507174,1547.370087412456,1226.670480620924,768.3259554592818,225.08241346875656,0.0,0.0,0.0,0.0,0.0,0.0,0.0,0.0,0.0,0.0,0.0,0.0,0.0,0.0,443.3950801534697,979.305319042124,1362.3397699420873,1596.7304084646505,1692.911865202265,1646.654285834673,1478.5483353244126,1179.848637838493,737.5813774176899,217.46697865946612,0.0,0.0,0.0,0.0,0.0,0.0,0.0,0.0,0.0,0.0,0.0,0.0,0.0,0.0,294.18629726421995,674.4008452840114,777.3520488056689,1153.8995917260195,1291.825934706538,1237.9522134326446,1127.103443394277,828.9687164202078,507.7041391168256,144.9775143749701,0.0,0.0,0.0,0.0,0.0,0.0,0.0,0.0,0.0,0.0,0.0,0.0,0.0,0.0,349.7521016856189,817.1220130966376,791.7365233019917,1470.6507688077027,1551.6013559267362,1125.693491954191,156.2599542837015,1094.3853575947712,646.4768772196023,181.9275757857666,0.0,0.0,0.0,0.0,0.0,0.0,0.0,0.0,0.0,0.0,0.0,0.0,0.0,0.0,99.00206671479722,159.36269596830377,240.3132830873373,371.4705863808236,293.34060923897283,203.64606048097127,206.4666704581541,80.10419199677541,41.18062282806528,0.8463951222581799,0.0,0.0,0.0,0.0,0.0,0.0,0.0,0.0,0.0,0.0,0.0,0.0,0.0,0.0,465.9599599709327,1015.4089853306624,1413.6750129462177,1659.91164769534,1760.323665850223,1721.1179649740936,1557.241868784091,1251.49099990372,770.3001703142064,243.98028818677838,0.0,0.0,0.0,0.0,0.0,0.0,0.0,0.0,0.0,0.0,0.0,0.0,0.0,0.0,442.5486850312116,978.458923919866,1369.1095167261306,1603.7815798591025,1701.9379585486524,1666.9628190897918,1501.112508044864,963.5101860087044,641.1177889726561,242.28749794226204,0.0,0.0,0.0,0.0,0.0,0.0,0.0,0.0,0.0,0.0,0.0,0.0,0.0,0.0,138.20847468793784,423.93294202060923,721.7862443842703,730.5302060232382,939.8174864585753,887.6365554291976,801.3268800632178,576.5265983018808,353.7005313954682,101.54054498456073,0.0,0.0,0.0,0.0,0.0,0.0,0.0,0.0,0.0,0.0,0.0,0.0,0.0,0.0,465.67782826351333,1023.5886835547916,1450.624367260003,1699.399480278889,1804.3248986554709,1773.0167642960516,1592.4991399503708,1283.646236482409,799.3526652082933,266.82659261464954,0.0,0.0,0.0,0.0,0.0,0.0,0.0,0.0,0.0,0.0,0.0,0.0,0.0,0.0,467.3699114110186,996.5111106126407,1382.3668785867978,1619.8588445999414,1716.6052718494054,1690.0912552250825,1530.4464275493592,1238.7986085549028,799.0705335008737,271.9042562511875,0.0,0.0,0.0,0.0,0.0,0.0,0.0,0.0,0.0,0.0,0.0,0.0,0.0,0.0,463.98574511600793,402.49658903282386,944.048047875844,1173.0788910544495,1338.647070391958,1311.2873657423875,1129.6426287610516,323.520216768715,233.82637510772446,154.28573942877682,0.0,0.0,0.0,0.0,0.0,0.0,0.0,0.0,0.0,0.0,0.0,0.0,0.0,0.0,0.0,358.4960633245869,966.6122205962956,1355.5707302550552,1766.2470175120084,1764.8370660719227,1617.0382346227584,1314.9543708418287,829.8144044454547,291.9299507018759,0.0,0.0,0.0,0.0,0.0,0.0,0.0,0.0,0.0,0.0,0.0,0.0,0.0,0.0,335.0847883848658,893.5599070909828,1336.6728555370335,1785.4270239374496,1508.7279428541547,1696.014606886867,1664.9886042348667,1293.235886146624,499.8065726001159,243.13389306452015,0.0,0.0,0.0,0.0,0.0,0.0,0.0,0.0,0.0,0.0,0.0,0.0,0.0,0.0,246.5187664565418,327.18722186815603,246.5187664565418,371.4705863808236,245.95450304170302,1026.9735569468132,935.304793333887,678.9135384086998,235.80058996264918,32.43666118909732,0.0,0.0,0.0,0.0,0.0,0.0,0.0,0.0,0.0,0.0,0.0,0.0,0.0,0.0,18.333611303183037,118.46420484765785,185.3124491777882,663.11840537528,798.2241383786155,371.752718088243,538.4487171584176,234.6720631329716,142.43903610520658,268.23725115174653,0.0,0.0,0.0,0.0,0.0,0.0,0.0,0.0,0.0,0.0,0.0,0.0,0.0,0.0,116.77212170015257,111.13090174578684,430.98482051207196,844.1995860387883,774.2493071210669,968.5871425482313,1058.5638230136524,1276.5943579909465,825.3017113207668,296.1612192161557,0.0,0.0,0.0,0.0,0.0,0.0,0.0,0.0,0.0,0.0,0.0,0.0,0.0,0.0,93.64297846785091,237.77480481757385,444.8057386905668,1656.5267743033187,621.6563579368064,618.2714845447848,701.7605499335817,528.0126723719444,12.97452305623671,275.2884225461981,0.0,0.0,0.0,0.0,0.0,0.0,0.0,0.0,0.0,0.0,0.0,0.0,0.0,0.0,149.7730463040887,665.6568836450434,1438.7776639364329,1717.4516669716638,1813.0688602944394,1804.3248986554709,1639.6031144402214,1334.6986406821084,863.9438558790685,325.7772704280701,0.0,0.0,0.0,0.0,0.0,0.0,0.0,0.0,0.0,0.0,0.0,0.0,0.0,47.6675308076781,549.1668936523104,1096.0774407422766,1501.6767714597026,1739.4515762772767,1839.0179064069132,1800.6586006530413,1637.0646361704578,1338.0828069771194,893.5599070909828,342.4180914867368,0.0,0.0,0.0,0.0,0.0,0.0,0.0,0.0,0.0,0.0,0.0,0.0,0.0,48.513925929936285,529.4226238120303,1056.3074764513085,1437.367712496347,1669.7834290669746,1769.3497591966104,1742.5543179618792,1638.7567193179627,1298.5949743935705,862.251065634552,331.98204670026354,0.0,0.0,0.0,0.0,0.0,0.0,0.0,0.0,0.0,0.0,0.0,0.0,0.0,61.2063172787536,556.5001967541814,1096.359572449696,1526.2158661320905,1710.96405189504,1804.6070303628906,1516.0619530530364,1437.6498442037664,1102.0007924040615,870.1486321512621,187.85092744755173,0.0,0.0,0.0,0.0,0.0,0.0,0.0,0.0,0.0,0.0,0.0,0.0,0.0,1.1285268296775737,309.1357422723924,707.6831944983559,1000.1774086150704,1138.6680150104278,1344.0061586389045,1422.4189745851857,946.0222627307685,832.0707510077988,589.7832530655369,199.97905538153026,0.0,0.0,0.0,0.0,0.0,0.0,0.0,0.0,0.0,0.0,0.0,0.0,0.0,13.538786471075495,498.1144894526106,998.7674571749848,1399.5712559632918,1643.8336758574899,1745.374927939062,1718.57948670433,1567.114357252736,1266.7225766193114,810.6343980200135,313.36630368966115,0.0,0.0,0.0,0.0,0.0,0.0,0.0,0.0,0.0,0.0,0.0,0.0,0.0,0.0,74.18154743200137,105.20755008400174,333.67483694477994,466.8056479961798,497.83235774519125,602.7577761217735,383.88084602222153,333.1105735299411,354.54692651772643,131.72085961131395,0.0,0.0,0.0,0.0,0.0,0.0,0.0,0.0,0.0,0.0,0.0,0.0,0.0,0.0,8.179698224129178,363.8551515715332,647.3232723418605,837.9941026695839,1267.2868400341506,1448.0858889902395,1133.0267950560624,1401.5461779152279,528.8590674942027,181.0811806635084,0.0,0.0,0.0,0.0,0.0,0.0,0.0,0.0,0.0,0.0,0.0,0.0,0.0,59.51423413124832,184.74818576294945,398.2660276155552,702.0426816410013,971.6898842328336,1879.3528412097307,1814.4795188315366,1653.1419009112965,1358.6734719396572,916.6883432262737,369.77779613630724,0.0,0.0,0.0,0.0,0.0,0.0,0.0,0.0,0.0,0.0,0.0,0.0,0.0,76.15576228692606,564.9620266857299,1092.6925673502549,1470.9329005151221,1701.9379585486524,1784.0170724973636,1748.7598013310833,1599.268886734414,1313.825844012151,887.6365554291976,359.90601476467276,0.0,0.0,0.0,0.0,0.0,0.0,0.0,0.0,0.0,0.0,0.0,0.0,0.0,69.38601550288277,214.9285003897027,899.2011270453487,1086.7699227854807,1680.7837372682864,1769.067627489191,1737.7594931297715,1586.576495385597,1302.2619794930113,881.148940352574,342.1366668763285,0.0,0.0,0.0,0.0,0.0,0.0,0.0,0.0,0.0,0.0,0.0,0.0,0.0,30.744578041592032,114.2336434303891,562.1414167085471,528.8590674942027,730.2480743158188,1002.4344622744256,817.4041448040567,1042.768689980233,513.9096224860301,160.2090910905619,0.28213170741939336,0.0,0.0,0.0,0.0,0.0,0.0,0.0,0.0,0.0,0.0,0.0,0.0,0.0,0.0,14.66731330075307,7.333303101870997,88.2838902209046,572.5774614950202,397.41963249329694,916.9704749336928,994.8190274651352,658.6057122505919,72.20662548006564,338.46966177688745,0.0,0.0,0.0,0.0,0.0,0.0,0.0,0.0,0.0,0.0,0.0,0.0,0.0,101.82267669198008,638.0150472880538,1207.7726059029021,1617.8846297450166,1873.4294895479456,1966.7903363083774,1860.1728347842893,1699.6816119863086,1399.5719630603032,960.6895760315216,406.16359413226496,0.0,0.0,0.0,0.0,0.0,0.0,0.0,0.0,0.0,0.0,0.0,0.0,0.0,107.7460283537652,625.6047876466557,1150.2325866265785,1524.8059146920043,1752.1446747231048,1842.967043213773,1804.6070303628906,1646.3728612242646,1359.5198670619154,930.5092614047684,391.77841253893126,0.0,0.0,0.0,0.0,0.0,0.0,0.0,0.0,0.0,0.0,0.0,0.0,0.0,71.64306916223792,566.3726852228268,888.4829505514558,1227.2347440357628,1488.7022484034658,1489.5486435257242,1490.112199843552,893.2777753835635,625.8869193540752,858.0205042172834,375.98327950551163,0.0,0.0,0.0,0.0,0.0,0.0,0.0,0.0,0.0,0.0,0.0,0.0,0.0,40.89849112064589,348.34144314852193,782.7104299556042,934.4583982116287,1138.6680150104278,1111.3083103608574,1371.3658632884747,1019.3574150405117,514.7560176082883,161.05477911580903,159.64482767572312,0.0,0.0,0.0,0.0,0.0,0.0,0.0,0.0,0.0,0.0,0.0,0.0,0.0,87.4382021956575,428.7284739497278,577.6551251315582,957.0225709320807,1329.057420727743,1310.7231023275488,1206.079815658386,1044.1786414203186,1009.7677653762967,586.1162479660958,135.95212812559376,0.0,0.0,0.0,0.0,0.0,0.0,0.0,0.0,0.0,0.0,0.0,0.0,0.0,46.5397110750116,258.08333807269264,680.3241969457965,702.0426816410013,878.6104620828104,1069.281999507545,1241.6192185320856,1096.0774407422766,970.8434891105754,704.0168964959261,218.59479839213262,0.0,0.0,0.0,0.0,0.0,0.0,0.0,0.0,0.0,0.0,0.0,0.0,0.0,125.79821504653992,635.7587007257098,1140.0786735475247,1501.112508044864,1704.7585685258352,1845.2233897761173,1791.0682438918152,1611.3970146683926,1299.4413695158285,850.1229377005734,369.21423981847954,0.0,0.0,0.0,0.0,0.0,0.0,0.0,0.0,0.0,0.0,0.0,0.0,0.0,137.64421127309905,681.1698849710436,1228.6446954758487,1623.8079814068021,1865.531923031236,1958.610638084248,1920.2506252333656,1574.7297920620263,1445.8295424278956,917.8168700559512,440.574470176287,0.0,0.0,0.0,0.0,0.0,0.0,0.0,0.0,0.0,0.0,0.0,0.0,0.0,133.977206173658,622.7841776694729,1062.7943844309214,1626.6285913839845,1842.967043213773,1921.379152063043,1866.377611056483,1664.7064725274474,1294.927969294129,862.251065634552,370.62419125856536,0.0,0.0,0.0,0.0,0.0,0.0,0.0,0.0,0.0,0.0,0.0,0.0,0.0,142.43903610520658,63.744795548517075,1245.2862236315266,545.4998885528694,667.9132302073876,921.2017434479727,1970.4573414078186,1758.3501580923096,1450.624367260003,974.2283625025972,438.88238702878164,0.0,0.0,0.0,0.0,0.0,0.0,0.0,0.0,0.0,0.0,0.0,0.0,0.0,157.67061282079842,701.4784182261626,1219.0550458116334,1580.6531437238116,1800.6586006530413,1887.531832336849,1856.787961392268,1687.8349086627381,1406.6231344547546,976.7668407723604,440.574470176287,0.0,0.0,0.0,0.0,0.0,0.0,0.0,0.0,0.0,0.0,0.0,0.0,0.0,167.2602624850135,741.5305142245502,1281.9534462378924,1677.1167321688456,1913.4815855463332,2004.3039540370014,1958.3285063768285,1786.2734190597077,1433.9828391043256,1003.8444137145116,459.7544766017282,23.410567842709963,0.0,0.0,0.0,0.0,0.0,0.0,0.0,0.0,0.0,0.0,0.0,0.0,169.2344773399382,723.4790346287866,1257.1322198580856,1626.3464596765652,1838.7364817965044,1850.300346315644,1812.222465172181,1646.3728612242646,1347.6731637383452,940.6631744838222,423.65081031318977,16.077264740838963,0.0,0.0,0.0,0.0,0.0,0.0,0.0,0.0,0.0,0.0,0.0,0.0,166.41386736275538,650.4260140264628,1231.747437160451,1608.012848373382,1820.9664268111487,1893.1730522912146,1867.78826959358,1618.4488931598557,1332.160162412345,922.0474314732197,413.496897234136,14.385181593333678,0.0,0.0,0.0,0.0,0.0,0.0,0.0,0.0,0.0,0.0,0.0,0.0,174.59356558688452,714.4529412823991,1225.2598220838272,1600.1152818566723,1818.992211956224,1915.4558004012576,1882.7370075047413,1718.57948670433,1430.3158340048844,966.3307959858873,440.574470176287,25.385489794645714,0.0,0.0,0.0,0.0,0.0,0.0,0.0,0.0,0.0,0.0,0.0,0.0,158.79843255346498,614.0402160305049,1224.9776903764075,1425.2388774653573,1799.2479421159442,1868.0704013009995,1823.5049050809125,1657.6545940359847,1356.4171253773136,694.7086714421191,423.93294202060923,21.436352987785284,0.0,0.0,0.0,0.0,0.0,0.0,0.0,0.0,0.0,0.0,0.0,0.0,177.69630727148675,694.9908031495386,941.7917013135001,1090.1540890804915,1158.1301531432887,1696.8610020091253,1833.9409498673856,1131.6168436159762,1338.647070391958,908.2265132947248,419.13811718850167,19.18000642544121,0.0,0.0,0.0,0.0,0.0,0.0,0.0,0.0,0.0,0.0,0.0,0.0,151.46512945159392,543.5256736979446,1048.1277782271789,1558.9346590286073,1787.4012387923742,1424.9567457579378,1558.0882639063489,1346.5446369086674,1223.849870643741,888.4829505514558,425.0614688502867,23.974831257548747,0.0,0.0,0.0,0.0,0.0,0.0,0.0,0.0,0.0,0.0,0.0,0.0,132.56725473357213,473.29326307280365,474.7039216099006,269.92933429925176,726.8632009237972,985.792934118748,1833.0952618421384,1668.6556093343079,1386.0331765892277,967.1771911081456,434.93325022192124,31.308134359419746,0.0,0.0,0.0,0.0,0.0,0.0,0.0,0.0,0.0,0.0,0.0,0.0,205.05601192105718,744.3511242017329,1242.4656136543435,1204.6698642183,1813.350992001859,1879.9171046245694,1851.4288731453214,1694.8867871542006,1411.4179592868625,990.5877589508556,452.7033052072765,36.94935431378546,0.0,0.0,0.0,0.0,0.0,0.0,0.0,0.0,0.0,0.0,0.0,0.0,214.0821052674445,742.6590410542277,1217.6443872745365,1551.8827805371445,1800.0943372382026,1884.4297977492574,1834.223081574805,1456.547718921788,1393.6486113985181,949.9713995376288,451.5747783775989,36.667222606366074,0.0,0.0,0.0,0.0,0.0,0.0,0.0,0.0,0.0,0.0,0.0,0.0,211.26149529026168,728.8381228757329,1065.614994408104,1154.1810163364278,1479.958286764498,1649.757734616286,1474.8813302249714,1434.2649708117447,1223.849870643741,601.3478246816876,288.2629456024348,14.385181593333678,0.0,0.0,0.0,0.0,0.0,0.0,0.0,0.0,0.0,0.0,0.0,0.0,29.333919504495068,122.41334165451828,193.49144030490632,364.7008395967803,195.46636225684207,129.7466447563893,445.0878703979861,616.5786943002684,46.821842782431,348.9057065633607,165.56817933750827,0.28213170741939336,0.0,0.0,0.0,0.0,0.0,0.0,0.0,0.0,0.0,0.0,0.0,0.0,116.77212170015257,363.2908881566945,581.3221302309993,544.6542005276223,815.1477982417128,663.11840537528,623.6305727917311,680.8877532636243,656.0672339808284,202.5175336512937,93.64297846785091,0.0,0.0,0.0,0.0,0.0,0.0,0.0,0.0,0.0,0.0,0.0,0.0,0.0,34.693007751441385,146.9524363269058,548.6026302374714,794.5578403761857,1341.1862557587324,1840.710696651429,1486.4459018411221,1444.7010155982182,1351.058037130367,589.7832530655369,283.1859890629079,16.923659863097146,0.0,0.0,0.0,0.0,0.0,0.0,0.0,0.0,0.0,0.0,0.0,0.0,250.74932787381059,272.18568086159587,836.0198878146592,1326.23681075056,1884.4297977492574,1961.7133797688505,1941.123421903323,1792.1967707214926,1498.5740297751004,550.0132887745685,277.54476910854214,22.847011524882248,0.0,0.0,0.0,0.0,0.0,0.0,0.0,0.0,0.0,0.0,0.0,0.0,298.98182919333857,905.1237716101227,1433.7007073969062,1810.248250317256,2017.842740508077,2088.6394145480567,2052.8178799669377,1861.0185228095368,1542.8573942877679,1084.7950008335451,507.7041391168256,55.283672713979556,0.0,0.0,0.0,0.0,0.0,0.0,0.0,0.0,0.0,0.0,0.0,0.0,295.3148240938975,872.6871104210252,1363.1868721613564,1697.9895288388032,1883.5834026270002,1935.2000702415385,1920.8148886482047,1731.5540097605667,1428.3416191499593,1007.2292871065332,489.3705278136425,52.7451944442161,0.0,0.0,0.0,0.0,0.0,0.0,0.0,0.0,0.0,0.0,0.0,0.0,291.6478189944565,848.1487228456488,1319.749195673936,1713.2196913603725,1914.609405279,1058.2816913062331,1961.1491163540115,1779.5043793726754,1486.7280335485416,1022.1780250176944,500.9350994297934,62.89910752326996,0.0,0.0,0.0,0.0,0.0,0.0,0.0,0.0,0.0,0.0,0.0,0.0,287.41725757718774,833.1992778374763,1311.2873657423875,1650.0391592266947,886.5080285995202,1509.2922062689936,1536.934042625983,1156.1559382883638,738.4277725399478,574.5523834469561,283.4681207703273,26.79544123473161,0.0,0.0,0.0,0.0,0.0,0.0,0.0,0.0,0.0,0.0,0.0,0.0,31.872397774258534,70.51454233256035,77.28358201959256,261.7496360751226,581.8856865488269,797.9427137682072,1026.4092935319743,809.7887099947667,801.3268800632178,379.9324163123722,190.67153742473454,12.128835030989606,0.0,0.0,0.0,0.0,0.0,0.0,0.0,0.0,0.0,0.0,0.0,0.0,12.410259641397927,53.30875076204382,199.6969236741108,309.98213739465064,320.98244559596264,342.9823549015756,235.80058996264918,266.26303629682184,229.3129748860253,125.23395163170116,57.82215098374303,0.0,0.0,0.0,0.0,0.0,0.0,0.0,0.0,0.0,0.0,0.0,0.0,0.0,5.359088246946321,5.076956539526927,89.41241705058218,150.61873432933578,267.1087243220689,191.79935715740103,229.03084317860592,137.64421127309905,280.92964250056383,232.6978482780469,112.54085318587272,2.820609977182857,0.0,0.0,0.0,0.0,0.0,0.0,0.0,0.0,0.0,0.0,0.0,0.0,305.4687371729514,833.4814095448959,1283.3641047749895,1598.7046233195751,1003.8444137145116,869.0208124185955,1164.6177682199125,914.9962600787683,1448.0851818932285,476.9602681722448,492.1911377908255,66.0018492078722,0.0,0.0,0.0,0.0,0.0,0.0,0.0,0.0,0.0,0.0,0.0,0.0,84.89972392589405,416.8817706261576,837.9941026695839,960.6895760315216,838.5583660844228,914.7141283713487,1075.2053511693302,922.893826595478,1237.670788822236,708.529589620614,363.2908881566945,50.48814078486097,0.0,0.0,0.0,0.0,0.0,0.0,0.0,0.0,0.0,0.0,0.0,0.0,338.46966177688745,883.6874186223372,1208.6182939281493,1416.7777546308198,1655.6810862780712,1732.6825365902444,1663.5779456977698,1513.8056064906925,1235.6958668703005,727.7095960460555,370.62419125856536,54.155145884301994,0.0,0.0,0.0,0.0,0.0,0.0,0.0,0.0,0.0,0.0,0.0,0.0,327.46935357557544,759.0184375024861,958.4332294691776,1078.3073857569211,1131.0525802011373,1257.9786149803438,1520.0103827628855,1291.2616712916993,745.7610756418188,411.8048140866307,204.4917485062184,21.718484695204676,0.0,0.0,0.0,0.0,0.0,0.0,0.0,0.0,0.0,0.0,0.0,0.0,161.61904253064782,393.1890710760282,622.2199142546342,1670.6298241892325,1846.351916605795,1927.584635432248,1874.8394409880318,1720.8358332666742,1432.29075595682,986.9207538514146,236.08272167006854,69.38601550288277,0.0,0.0,0.0,0.0,0.0,0.0,0.0,0.0,0.0,0.0,0.0,0.0,339.8796132169733,848.7122791634765,786.6595667624648,1097.4880992793737,1408.3159246992711,1843.5313066286121,1784.5806288151916,1627.1928547988232,1359.2377353544964,966.6129276933067,281.49390591540265,40.3342277058071,0.0,0.0,0.0,0.0,0.0,0.0,0.0,0.0,0.0,0.0,0.0,0.0,57.82215098374303,293.6220338493811,512.7810956563526,558.7565433165254,823.0453647584227,1187.4640726477835,1301.415584370753,1263.3377032272901,1432.29075595682,673.8365818691726,219.15906180697147,28.76965608965628,0.0,0.0,0.0,0.0,0.0,0.0,0.0,0.0,0.0,0.0,0.0,0.0,380.4959726301999,953.0741412222313,1435.6756293488418,1771.3246811485462,1965.3803848682912,2040.40762032554,1986.8167378560768,1810.248250317256,1513.5234747832726,1078.3073857569211,536.7566340109124,80.10419199677541,0.0,0.0,0.0,0.0,0.0,0.0,0.0,0.0,0.0,0.0,0.0,3.9491368068604302,388.675670854329,926.8422563053273,1392.5207916658514,1671.1940876040715,1865.2497913238165,1937.4564168038821,1956.636423229324,1719.4258818265882,1432.0086242494006,1021.050205285028,520.1151058552346,82.92480197395828,0.0,0.0,0.0,0.0,0.0,0.0,0.0,0.0,0.0,0.0,0.0,14.385181593333678,407.0099892545232,955.0483560771561,1412.2643544091204,1731.2725851501584,1905.8661507370432,1959.174901499087,1912.3530587166558,1753.2724944557715,1475.4455936398097,1057.4352961839747,543.2435419905253,88.2838902209046,0.0,0.0,0.0,0.0,0.0,0.0,0.0,0.0,0.0,0.0,0.0,10.436044786473248,351.16205312570474,677.7857186760331,1023.0244201399527,1150.2325866265785,1430.880097419723,1228.9268271832682,1613.0890978158982,875.5077203982083,915.2783917861876,999.6138522972427,489.93479122848123,79.82206028935603,0.0,0.0,0.0,0.0,0.0,0.0,0.0,0.0,0.0,0.0,0.0,0.0,324.930875305812,501.4993628446322,466.5242233857714,515.6017056335354,818.8140962441428,1067.871340970448,636.3229641405484,596.55299984958,612.9116892008274,380.4959726301999,115.36146316305559,47.10397448985039,0.0,0.0,0.0,0.0,0.0,0.0,0.0,0.0,0.0,0.0,0.0,0.0,130.31090817122805,389.5220659765872,369.21423981847954,1761.170060972481,2003.1761343043354,2090.895761110401,1984.5603912937327,1822.3763782512347,1527.9079492795959,1092.4104356428354,540.140800305923,88.56602192832399,0.0,0.0,0.0,0.0,0.0,0.0,0.0,0.0,0.0,0.0,0.0,31.872397774258534,449.318431815255,1035.4346797813507,1548.2164825347143,1895.9943693654086,2101.0503812864663,2165.0773085424025,2095.6905859425087,1899.3785356604196,1540.8831794328432,814.8656665342935,445.6514267158139,95.33576871236728,0.0,0.0,0.0,0.0,0.0,0.0,0.0,0.0,0.0,0.0,0.0,33.2830563113555,450.7283832553408,1017.6653318930064,1495.18986348009,1818.4279485413856,2008.2530908438614,2069.177276415196,2006.278875988937,1827.1719101803535,1523.3952561549074,1061.102301283416,551.141108507235,97.87424698213071,0.0,0.0,0.0,0.0,0.0,0.0,0.0,0.0,0.0,0.0,0.0,39.206407973140614,463.4214817011692,1022.7422884325333,1468.3937151483472,1772.1703691737937,1943.3797684656672,1995.2785677876248,1932.661591971775,1764.5549343645032,1485.035243304025,1067.0256529452008,551.9875036294933,95.33576871236728,0.0,0.0,0.0,0.0,0.0,0.0,0.0,0.0,0.0,0.0,0.0,42.026310853312395,454.95965176962056,1007.5114188139527,1465.0095488533366,1774.1452911257288,1707.2970467955984,2026.5867021470447,1971.0216048226569,1804.3248986554709,1513.8056064906925,1057.1531644765553,548.3204985300522,96.46358844503378,0.0,0.0,0.0,0.0,0.0,0.0,0.0,0.0,0.0,0.0,0.0,44.56549622008693,440.574470176287,971.4077525254145,995.3825837829629,893.2777753835635,1004.9729405441893,451.8569100850184,1409.7258761393573,1758.9137144101373,1450.9064989674225,1029.5120352165766,517.0123641706324,98.15637868955014,0.0,0.0,0.0,0.0,0.0,0.0,0.0,0.0,0.0,0.0,0.0,43.15483768298996,427.5999471200503,616.5786943002684,1101.7186606966422,1703.6307487931686,1465.0095488533366,1959.4570332065061,1898.532140538161,1744.8106645242228,1472.6249836626273,1065.3328627006842,543.5256736979446,99.56633012963604,0.0,0.0,0.0,0.0,0.0,0.0,0.0,0.0,0.0,0.0,0.0,50.20600907744156,435.21538192934077,936.1504813591341,1114.9753154602984,1356.134993669894,595.4244730199025,1281.6713145304734,1621.2695031370379,1358.1092085248188,790.3265718619058,512.7810956563526,239.74901967249852,91.66876361292624,0.0,0.0,0.0,0.0,0.0,0.0,0.0,0.0,0.0,0.0,0.0,42.026310853312395,73.89941572458198,297.0069072414028,386.41932429198494,477.8059561974918,909.0729084169832,1347.391032030926,799.6340898187015,752.5308224258621,454.3953883547818,379.9324163123722,229.03084317860592,99.56633012963604,0.0,0.0,0.0,0.0,0.0,0.0,0.0,0.0,0.0,0.0,0.0,27.077572942150997,155.41426625845438,997.9210620527265,1061.3844329908352,1263.0555715198711,1340.3398606364744,1264.1840983495485,1422.7003991955935,1270.6710063291612,1189.438287502708,823.6096281732614,530.8332823491272,108.0281600611846,0.0,0.0,0.0,0.0,0.0,0.0,0.0,0.0,0.0,0.0,0.0,2.820609977182857,26.23117781989282,106.6182086210987,164.43965250783066,170.36300416961575,271.9042562511875,335.64905179970464,782.7111370526152,689.6317149025923,522.6535841249981,338.1875300694681,96.74572015245316,0.0,0.0,0.0,0.0,0.0,0.0,0.0,0.0,0.0,0.0,0.0,0.0,68.25819577021629,498.96088457486877,1043.8965097128994,1454.0092406520246,1740.580103106954,1911.7887953018167,1965.6625165757112,1908.6867607142256,1755.810972725535,1474.3170668101322,1071.8204777773083,568.0647683703321,110.00237491610928,0.0,0.0,0.0,0.0,0.0,0.0,0.0,0.0,0.0,0.0,0.0,74.18154743200137,499.2423091852771,1012.30624364606,1424.3924823430993,1711.8097399202868,1560.0624787612733,1950.7130715675385,1876.5315241355372,1721.6822283889326,1438.7776639364329,323.2387921583067,559.6029384387837,114.51577513780848,0.0,0.0,0.0,0.0,0.0,0.0,0.0,0.0,0.0,0.0,0.0,76.15576228692606,515.8838373409549,1075.7689074871578,1532.702774111703,1848.8903948755585,2031.3815269791528,2083.2803263011106,1784.5806288151916,1412.8286178239593,1558.6525273211873,1114.9753154602984,482.60148812661043,114.79790684522787,0.0,0.0,0.0,0.0,0.0,0.0,0.0,0.0,0.0,0.0,0.0,80.10419199677541,520.1151058552346,1074.3589560470716,1527.3443929617679,1842.4027797989347,2027.9973606841422,2082.4339311788517,2028.5609170019695,1852.838824585408,1553.5755707816604,1122.5907502695889,357.6496682023287,117.05425340757195,0.0,0.0,0.0,0.0,0.0,0.0,0.0,0.0,0.0,0.0,0.0,83.48906538879706,522.0893207101593,1036.5632066110284,1499.4204248973588,1807.4276403400731,1985.4060793189801,2036.740615226099,1979.764859364614,1801.786420385708,1018.2295953078453,1064.2050429680182,562.7056801233858,125.23395163170116,0.0,0.0,0.0,0.0,0.0,0.0,0.0,0.0,0.0,0.0,0.0,88.0017585134852,525.4741941021811,1039.9480800030499,1453.727108944605,1738.041624837191,1899.9427990752577,1945.6361150280115,1695.7324751794479,1743.400713084137,1459.3683288989712,1067.5892092630286,580.7571597191495,128.054561608884,0.0,0.0,0.0,0.0,0.0,0.0,0.0,0.0,0.0,0.0,0.0,89.97668046542096,537.0387657183319,1051.5119445221899,1500.8303763374445,1797.8379906758585,1965.098253160872,2024.61248729212,1970.175209700399,1373.6222098508188,1523.6773878623267,1102.2829241114814,579.9114716939023,125.51608333912053,0.0,0.0,0.0,0.0,0.0,0.0,0.0,0.0,0.0,0.0,0.0,47.3853991002587,198.2869722340249,640.2713938503979,1094.948913912599,1378.4177417799374,1471.2143251255304,1548.2164825347143,1846.6340483132144,1681.6301323905445,1408.879481017099,1023.5886835547916,546.9105470899663,122.41334165451828,0.0,0.0,0.0,0.0,0.0,0.0,0.0,0.0,0.0,0.0,0.0,91.66876361292624,356.52114137265113,772.8386485839699,1056.871032769136,1002.7158868848343,1735.221014860008,888.7650822588754,1683.32221553805,1087.8977425181474,999.6138522972427,583.5777696963322,304.0587857328655,97.87424698213071,0.0,0.0,0.0,0.0,0.0,0.0,0.0,0.0,0.0,0.0,0.0,27.35970464957039,176.00422412398152,838.5583660844228,619.9635676922901,1208.3361622207299,1404.9303442102387,1432.5728876642393,688.785319780334,675.8107967240974,676.9393235537749,489.08839610622323,278.3911642308003,82.92480197395828,0.0,0.0,0.0,0.0,0.0,0.0,0.0,0.0,0.0,0.0,0.0,97.59211527471136,257.80120636527323,743.7868607868942,1032.3326451937596,683.4262315333877,1555.2676539291656,1648.347076079189,1275.1844065508603,1120.0522719998253,735.3250308553457,515.0381493157078,264.0059826374667,87.4382021956575,0.0,0.0,0.0,0.0,0.0,0.0,0.0,0.0,0.0,0.0,0.0,2.820609977182857,262.59603119738085,62.33484410843117,95.90003212720607,368.3678446962213,743.5047290794748,959.2796245914357,758.4541740876473,682.2984118007213,776.2235219759916,629.5532173565052,357.08540478748984,102.66907181423828,0.0,0.0,0.0,0.0,0.0,0.0,0.0,0.0,0.0,0.0,0.0,0.0,315.6226502520052,333.67483694477994,319.85391876628506,1257.9786149803438,1061.3844329908352,623.0663093768923,794.2757086687661,518.7044473181377,453.83112493994315,424.77933714286735,108.0281600611846,59.23210242382893,0.0,0.0,0.0,0.0,0.0,0.0,0.0,0.0,0.0,0.0,0.0,27.92396806440918,85.74541195114114,212.10789041251985,797.3777432563576,1805.4534254851487,1954.662208374399,2010.5094374062064,1726.7591849284593,1809.4018551949985,1527.9079492795959,1088.7441376404058,595.142341312483,135.1057330033356,0.0,0.0,0.0,0.0,0.0,0.0,0.0,0.0,0.0,0.0,0.0,109.43881859828156,569.4754269074291,1075.7689074871578,1466.4195002934225,1738.0409177401793,1892.327364265968,1932.097328556936,1868.352533008419,1707.8613102104373,1436.5213173740888,1052.6404713518673,574.2702517395368,128.054561608884,0.0,0.0,0.0,0.0,0.0,0.0,0.0,0.0,0.0,0.0,0.0,108.87455518344278,562.9878118308053,1061.102301283416,1441.880405621035,1699.1173485714694,1846.6340483132144,1886.4040126041825,1836.7615598445684,1690.0912552250825,1431.1622291271426,1055.1789496216306,581.0392914265689,132.56725473357213,0.0,0.0,0.0,0.0,0.0,0.0,0.0,0.0,0.0,0.0,0.0,116.48998999273316,568.0647683703321,1071.8204777773083,1461.9068071687345,1732.4004048828251,1883.5834026270002,1923.9176303328068,1949.86667644528,1716.0410084345667,1458.5219337767126,1078.3073857569211,594.295946190225,137.64421127309905,0.0,0.0,0.0,0.0,0.0,0.0,0.0,0.0,0.0,0.0,0.0,118.74633655507724,564.9620266857299,1057.7174278913942,1436.5220244710995,1707.5791785030178,1853.403088000246,1891.4809691437088,1709.553393357943,1683.6043472454694,1422.136135780755,1041.3580314431356,575.6802031796225,140.74695295770132,0.0,0.0,0.0,0.0,0.0,0.0,0.0,0.0,0.0,0.0,0.0,119.8748633847548,561.8592850011277,1020.4859418701892,1472.9071153700463,1745.0927962316425,1694.0403920319425,1957.482818351581,1893.7373157060536,1728.7333997833841,1464.1631537310784,1045.3071682499963,578.5008131568053,141.5933480799595,0.0,0.0,0.0,0.0,0.0,0.0,0.0,0.0,0.0,0.0,0.0,109.43881859828156,473.85752648764253,894.1241705058217,1277.722884820624,917.8168700559512,986.0750658261672,1697.9895288388032,1672.321907336738,1534.6776960636387,1133.3089267634814,1030.0755915344046,506.57631938415915,144.69608976456172,0.0,0.0,0.0,0.0,0.0,0.0,0.0,0.0,0.0,0.0,0.0,132.8493864409915,502.6271825772988,830.9429312751323,1138.103751595589,1173.0788910544495,1424.6746140505186,1588.5507102405218,1507.600123121488,1202.1313859485367,696.6835933940549,504.8835291396428,361.59809791217805,104.36115496174357,0.0,0.0,0.0,0.0,0.0,0.0,0.0,0.0,0.0,0.0,0.0,31.308134359419746,361.59809791217805,670.451708477151,898.0726002156713,1276.030094576107,1349.9295103006893,1512.6770796610147,1787.1198141819657,1618.1667614524358,1365.724643334109,998.4853254675653,547.1926787973856,151.18299774417454,0.0,0.0,0.0,0.0,0.0,0.0,0.0,0.0,0.0,0.0,0.0,100.41272525189423,315.6226502520052,656.0672339808284,942.0738330209192,874.3799006655416,905.6880350249614,1353.0322519852914,1292.1073593169465,1462.1889388761538,1179.848637838493,1013.1526387683183,563.552075245644,156.54208599112087,0.0,0.0,0.0,0.0,0.0,0.0,0.0,0.0,0.0,0.0,0.0,135.95212812559376,561.2957286833,1050.9483882043621,1445.2652790130567,1349.0838222754426,1814.1973871241169,1849.4539511933858,1790.7861121843955,1633.679762778436,716.9914195521628,1026.6914252393938,566.9362415406546,154.85000284361558,0.0,0.0,0.0,0.0,0.0,0.0,0.0,0.0,0.0,0.0,0.0,132.00299131873334,556.2180650467618,1036.281074903609,851.8150208480788,1456.8291435321964,1868.9160893262467,1915.1736686938384,1789.6582924517295,1399.0076996454645,1099.462314134298,828.6865847127881,448.7541684004162,117.61851682241074,0.0,0.0,0.0,0.0,0.0,0.0,0.0,0.0,0.0,0.0,0.0,80.9505871190336,21.436352987785284,302.93025890318785,596.55299984958,1349.0838222754426,918.9453968856288,800.4804849409597,1234.0037837227949,1248.3889653161286,650.1438823190433,440.2923384688676,313.9305671044999,163.59396448258357,0.0,0.0,0.0,0.0,0.0,0.0,0.0,0.0,0.0,0.0,0.0,146.9524363269058,628.9896610386775,1167.7198028075036,1579.524616894134,1861.301361613967,2019.2533990451736,2053.100011674357,1977.5085128022695,1807.709772047493,1525.6516027172515,1128.7962336387932,617.4250894225266,165.56817933750827,0.0,0.0,0.0,0.0,0.0,0.0,0.0,0.0,0.0,0.0,0.0,147.23456803432518,605.0141226841176,1087.3334791033085,1469.240110270605,1725.9127898062009,1869.762484448505,1907.840365591968,1862.1470496392144,1696.2967385942866,1444.1367521833788,1067.3077846526203,603.6041712440317,165.00391592266942,0.0,0.0,0.0,0.0,0.0,0.0,0.0,0.0,0.0,0.0,0.0,83.48906538879706,595.7066047273219,1074.3589560470716,1453.7264018475944,1719.7073064369965,1866.9418744713214,1905.0197556147848,1340.903416954302,1707.8613102104373,1437.0855807889277,1062.7943844309214,597.3986878748273,162.74756936032537,0.0,0.0,0.0,0.0,0.0,0.0,0.0,0.0,0.0,0.0,0.0,146.9524363269058,576.5265983018808,1041.3580314431356,1408.879481017099,1663.8600774051888,1805.7355571925684,1843.8134383360311,1595.0383253171453,1664.424340820028,342.7002231941562,539.2951122806759,592.6038630427197,174.03000926905682,0.0,0.0,0.0,0.0,0.0,0.0,0.0,0.0,0.0,0.0,0.0,153.721476013938,471.31904821787896,1029.793459826985,1392.80221627626,1641.8601680995764,1784.0170724973636,1581.49953884607,1204.1056008034614,465.9599599709327,1254.593741588322,814.0192714120351,584.4241648185904,177.4141755640674,0.0,0.0,0.0,0.0,0.0,0.0,0.0,0.0,0.0,0.0,0.0,152.31152457385213,566.3726852228268,1026.4092935319743,1392.5200845688407,1648.347076079189,1793.3245904541593,999.6138522972427,1811.0946454395144,1635.93610934078,1387.4431280293134,1026.6914252393938,499.8065726001159,173.18361414679862,0.0,0.0,0.0,0.0,0.0,0.0,0.0,0.0,0.0,0.0,0.0,150.33660262191637,577.6551251315582,1064.4871746754377,1448.368020697659,1713.7846618722226,1865.531923031236,1907.840365591968,1861.0185228095368,1704.4764368184162,1439.9061907661105,1035.9989431961894,595.142341312483,174.59356558688452,0.0,0.0,0.0,0.0,0.0,0.0,0.0,0.0,0.0,0.0,0.0,152.02939286643274,571.1675100549344,1027.2549815572218,1433.7007073969062,1711.246183602459,1861.301361613967,1901.9170139301827,1847.479736338461,1689.8091235176626,1383.7768300268835,1022.7422884325333,589.7832530655369,176.00422412398152,0.0,0.0,0.0,0.0,0.0,0.0,0.0,0.0,0.0,0.0,0.0,94.77150529752848,552.2696353369125,936.1504813591341,1255.4401367105802,1636.2182410481994,1649.475602908867,1509.5743379764124,1665.2700288452752,1410.8544029690347,1259.3892735174404,915.560523493607,580.4750280117299,178.26057068632554,0.0,0.0,0.0,0.0,0.0,0.0,0.0,0.0,0.0,0.0,0.0,155.6956908688627,482.88361983402984,1010.8955851089634,1363.7504284791846,1607.166453251124,1742.2728933514707,1789.0940290368906,1742.8364496692984,961.8181028611992,1120.0522719998253,999.8952769076512,485.70352271420165,185.87600549561597,0.0,0.0,0.0,0.0,0.0,0.0,0.0,0.0,0.0,0.0,0.0,159.92695938314253,555.0902453140956,993.4083689280384,1347.391032030926,1597.2946718794894,1739.7337079846961,1787.9655022072131,1736.0667028852552,1584.6015734336609,1169.4125930520195,926.2786999874997,443.67721186088914,168.1066576072717,0.0,0.0,0.0,0.0,0.0,0.0,0.0,0.0,0.0,0.0,0.0,137.36207956567966,566.0905535154075,888.2008188440366,1158.412284850708,1454.2906652624329,1253.4659218556558,1306.4925409102802,1391.392264836174,1238.516476847483,1226.670480620924,903.9959518774563,352.8548433702212,172.9014824393792,0.0,0.0,0.0,0.0,0.0,0.0,0.0,0.0,0.0,0.0,0.0,131.43872790389455,540.9871954281812,876.3541155204663,1194.5159511392462,1457.1119823366269,1577.5504020392093,1699.6816119863086,1587.1400517034244,1452.598582114928,1403.520392770153,1049.2555979598455,611.2196060533222,173.46574585421803,0.0,0.0,0.0,0.0,0.0,0.0,0.0,0.0,0.0,0.0,0.0,144.41395805714237,442.8308167386311,877.4826423501439,1188.8747311848806,1384.3403863447113,1510.70286480609,1624.6543765290598,1521.9853047148215,1500.8303763374445,1232.8752568931175,813.172876289777,542.9614102831058,176.56848753882028,0.0,0.0,0.0,0.0,0.0,0.0,0.0,0.0,0.0,0.0,0.0,144.69608976456172,545.4998885528694,786.6595667624648,1162.924977975396,1314.1086828165817,1131.3347119085568,601.0656929742684,1092.6925673502549,1371.0844386780666,1102.5650558189006,862.251065634552,539.5772439880951,179.10696580858377,0.0,0.0,0.0,0.0,0.0,0.0,0.0,0.0,0.0,0.0,0.0,149.49091459666928,531.6796774713855,939.5353547511558,1179.5665061310738,1449.4958404303256,1511.8306845387567,1638.7574264149741,1476.291281665057,1308.1853311547964,1046.4349879826627,825.3017113207668,526.0384575170199,71.36093745481854,0.0,0.0,0.0,0.0,0.0,0.0,0.0,0.0,0.0,0.0,0.0,136.51639154043258,569.7568515178375,1016.2546733559096,1369.9559118483887,1613.9362000351673,1752.4268064305245,1792.478902428912,1745.9391913539005,1601.8073650041777,1367.1353018712061,1026.4092935319743,601.9120880965264,193.21001569449803,0.0,0.0,0.0,0.0,0.0,0.0,0.0,0.0,0.0,0.0,0.0,140.1826895428625,566.3726852228268,1001.5880671521677,1354.1607788149693,1598.9867550269946,1734.656044348158,845.6095374788742,964.0744494235432,1196.7722977015906,1351.9037251556142,1002.7158868848343,590.6296481877948,179.38909751600315,0.0,0.0,0.0,0.0,0.0,0.0,0.0,0.0,0.0,0.0,0.0,164.15752080041128,309.70000568723117,979.5874507495436,1325.390415628302,1569.6528355224998,1325.9546790431407,1237.3886571148164,773.9671754136473,187.00453232529355,629.2710856490858,692.4523248797751,488.80626439880376,183.05539551843307,0.0,0.0,0.0,0.0,0.0,0.0,0.0,0.0,0.0,0.0,0.0,150.90086603675516,581.0392914265689,1047.5635148123404,1416.7777546308198,1674.2961221916626,1821.5306902259879,1865.2497913238165,1562.8830887384563,1686.7070889300714,1428.0594874425399,1074.6410877544913,633.5023541633657,195.46636225684207,0.0,0.0,0.0,0.0,0.0,0.0,0.0,0.0,0.0,0.0,0.0,157.95274452821786,561.0135969758805,994.2547640502963,1340.057728929055,1583.1909148965647,1721.1179649740936,1769.067627489191,1730.1440583204812,1591.6534519251238,1358.6734719396572,746.0432073492383,508.8326659465032,202.5175336512937,0.0,0.0,0.0,0.0,0.0,0.0,0.0,0.0,0.0,0.0,0.0,154.28573942877682,568.3469000777516,643.9383989498389,1361.4940819168405,885.0980771594342,1759.1958461175568,1777.5294574207394,1356.4171253773136,1602.3716284190161,1363.468296771765,1034.3068600486845,615.1687428601825,199.6969236741108,0.0,0.0,0.0,0.0,0.0,0.0,0.0,0.0,0.0,0.0,0.0,154.28573942877682,562.4235484159665,1000.4595403224899,1354.1607788149693,1582.909490286156,1298.0307109787316,1789.3761607443098,1724.5028383661152,1587.9864468256824,1356.6992570847328,1019.6395467479313,609.8096546132363,205.33814362847656,0.0,0.0,0.0,0.0,0.0,0.0,0.0,0.0,0.0,0.0,0.0,159.36269596830377,402.49658903282386,990.305627243436,1330.7495038752486,1567.9600452779835,1707.5791785030178,1749.323357648911,1696.5788703017065,1560.6267421761124,982.1259290193068,696.1193299792161,579.9107645968912,188.4144837653794,0.0,0.0,0.0,0.0,0.0,0.0,0.0,0.0,0.0,0.0,0.0,159.36269596830377,553.9617184844179,979.305319042124,1328.7752890203235,1573.8833969397683,935.3040862368761,1248.9525216339564,274.1606028135316,1509.2922062689936,1350.2116420081088,1051.7940762296091,626.1690510614945,194.05570371974514,0.0,0.0,0.0,0.0,0.0,0.0,0.0,0.0,0.0,0.0,0.0,155.9778225762821,556.2180650467618,997.638930345307,1347.9552954457652,1597.0125401720693,1202.9770739737835,1805.734850095557,1432.29075595682,680.3241969457965,72.48875718748505,110.84877003836745,102.3869401068189,60.0784975460871,0.0,0.0,0.0,0.0,0.0,0.0,0.0,0.0,0.0,0.0,0.0,155.9778225762821,556.7823284616006,985.2286707039093,1338.3656457815496,1587.1400517034244,1489.5486435257242,774.2493071210669,1158.412284850708,1611.6798534728232,1359.5198670619154,1028.6656400943184,530.8332823491272,216.0563201223692,0.0,0.0,0.0,0.0,0.0,0.0,0.0,0.0,0.0,0.0,0.0,88.84815363574339,544.6542005276223,968.0235862304036,1069.281999507545,1571.9091820848435,1104.8214023812443,695.5550665643774,1050.3841247895234,1341.4676803691407,888.2008188440366,243.13389306452015,15.513001326000175,199.97905538153026,0.0,0.0,0.0,0.0,0.0,0.0,0.0,0.0,0.0,0.0,0.0,155.9778225762821,550.2954204819879,987.7671489736723,1346.8267686160873,1572.755577207102,1235.1323105524727,881.148940352574,1301.6977160781726,1360.0834233797432,1360.6476867945821,997.9210620527265,264.57024605230544,120.1569950921742,0.0,0.0,0.0,0.0,0.0,0.0,0.0,0.0,0.0,0.0,0.0,155.6956908688627,551.9875036294933,983.8187192638233,1336.954987244453,1585.4479685559193,1157.2837580210305,402.49658903282386,1542.8573942877679,1397.8798799127978,1021.3323369924476,121.00268311742133,212.10789041251985,153.43934430651862,0.0,0.0,0.0,0.0,0.0,0.0,0.0,0.0,0.0,0.0,0.0,96.18145673761438,348.0593114411025,290.51999926179,316.18691366684396,526.0384575170199,748.581685619002,1448.0851818932285,1270.3888746217415,384.72724114447965,73.33515230974321,327.7514852829948,237.77480481757385,143.28543122746478,0.0,0.0,0.0,0.0,0.0,0.0,0.0,0.0,0.0,0.0,0.0,151.7472611590133,551.141108507235,985.792934118748,1345.6989488834208,1567.6786206675752,1406.3410027473356,1767.3755443416858,1713.5025301648031,1573.8833969397683,1346.8267686160873,1045.025036542577,630.3996124787633,206.74880216557355,1.9742148549246767,0.0,0.0,0.0,0.0,0.0,0.0,0.0,0.0,0.0,0.0,133.4136498558303,551.141108507235,1002.7158868848343,1369.9559118483887,1635.654684730372,1303.3897992256775,1631.7055479235114,1250.6453118784727,1470.9321934181107,1316.082897671506,1059.6916427463188,624.1941291095587,228.74871147118648,1.9742148549246767,0.0,0.0,0.0,0.0,0.0,0.0,0.0,0.0,0.0,0.0,124.10542480202356,547.4748105048052,976.4847090649413,1231.1831737456125,1568.8064404002414,1514.3691628085198,1450.9064989674225,1622.6794545771247,1116.103842289976,1165.4634562451593,1044.7429048351576,635.4765690182902,206.4666704581541,2.2563465623440697,0.0,0.0,0.0,0.0,0.0,0.0,0.0,0.0,0.0,0.0,148.08025605957232,567.5005049554933,1017.1010684781676,1368.5452533112918,1462.1889388761538,1540.0367843105853,1888.6603591665264,1825.4798270328486,1684.4500352707166,1448.0858889902395,1070.4098192402116,651.2717020517098,202.7996653587131,4.230561417268747,0.0,0.0,0.0,0.0,0.0,0.0,0.0,0.0,0.0,0.0,129.7466447563893,458.3445251616423,826.429531053433,1199.5929076787731,1411.7000909942817,1536.6519109185635,1623.243717991963,1730.1433512234698,1585.7301002633387,1361.7762136242595,1037.4096017332865,631.2460076010217,209.28728043533695,1.6920831475052835,0.0,0.0,0.0,0.0,0.0,0.0,0.0,0.0,0.0,0.0,137.64421127309905,508.5505342390838,820.506886488659,791.7365233019917,672.1444987216672,1097.2059675719543,1498.8561614825198,1097.2059675719543,1390.545869713916,1124.5649651245135,876.9183789353052,219.44119351439082,179.67122922342256,0.0,0.0,0.0,0.0,0.0,0.0,0.0,0.0,0.0,0.0,0.0,133.4136498558303,421.11233204342636,994.536895757716,487.39631295871806,180.51691724866959,132.28512302615272,540.9871954281812,1017.1010684781676,1725.066394683943,1246.9783067790318,804.7117534552394,573.4238566172785,231.8514531557888,4.512693124688139,0.0,0.0,0.0,0.0,0.0,0.0,0.0,0.0,0.0,0.0,0.0,126.9260347792064,508.2684025316644,779.6083953680131,1406.6231344547546,1634.2440261932752,1872.3009627182682,1558.6525273211873,1375.0328683879156,754.7871689882062,937.8425645066394,486.26778612904036,208.4408853130788,2.2563465623440697,0.0,0.0,0.0,0.0,0.0,0.0,0.0,0.0,0.0,0.0,125.51608333912053,543.2435419905253,825.0195796133473,1330.1852404604097,1569.934967229919,1714.3482181900501,1565.1401423978116,1485.8816384262832,1600.6788381745,1356.134993669894,1034.871123463523,635.1944373108709,215.20992500011104,4.230561417268747,0.0,0.0,0.0,0.0,0.0,0.0,0.0,0.0,0.0,0.0,145.82390949722824,537.8844537435789,973.3819673803388,1326.5189424579794,1580.9352754312313,1738.32375654461,1785.14489223003,1051.2298128147702,1634.5261579006942,1383.2125666120446,1003.2801502996728,647.041140634441,215.4920567075304,6.769039687032214,0.0,0.0,0.0,0.0,0.0,0.0,0.0,0.0,0.0,0.0,135.95212812559376,535.3459754738154,980.1517141643823,1153.8995917260195,882.2774671822516,352.2905799553824,1855.0958782447626,1751.5804113082665,1686.7070889300714,1182.1049844008369,351.16205312570474,504.8835291396428,217.46697865946612,6.769039687032214,0.0,0.0,0.0,0.0,0.0,0.0,0.0,0.0,0.0,0.0,141.3112163725401,528.0126723719444,967.1771911081456,1330.7495038752486,1603.2180235412743,1754.1188895780301,1804.042766948052,283.75025247774664,207.3123584834012,638.861442410312,823.3274964658418,453.2668615251043,152.87578798869092,0.0,0.0,0.0,0.0,0.0,0.0,0.0,0.0,0.0,0.0,0.0,121.28481482484072,528.8590674942027,971.1256208179947,1337.237118951872,1598.1403599047367,375.4190160906729,336.2133152145434,321.2638702063709,597.3986878748273,776.2235219759916,828.404453005369,630.6817441861828,217.18484695204674,0.0,0.0,0.0,0.0,0.0,0.0,0.0,0.0,0.0,0.0,0.0,86.3096753659799,484.57570298153513,928.2529148424243,1329.9038158500011,1123.1550136844276,487.39631295871806,1308.4674628622158,1353.0322519852914,1070.4098192402116,1098.6159190120402,531.397545763966,639.9899692399895,122.13120994709887,0.0,0.0,0.0,0.0,0.0,0.0,0.0,0.0,0.0,0.0,0.0,151.46512945159392,304.0587857328655,780.4547904902713,1037.127470025867,58.94997071640953,135.95212812559376,194.05570371974514,417.4460340409963,886.2266039891119,1330.7502109722593,854.3534991178424,29.333919504495068,219.72332522181026,0.0,0.0,0.0,0.0,0.0,0.0,0.0,0.0,0.0,0.0,0.0,132.00299131873334,522.6535841249981,953.0741412222313,1311.0059411319792,1552.4477510489944,1765.4013294867611,1816.453733686461,1698.2709534492114,1566.8322255453168,1160.1043679982126,1020.20381016277,624.4762608169782,242.00607333185368,0.0,0.0,0.0,0.0,0.0,0.0,0.0,0.0,0.0,0.0,0.0,139.05486981019607,502.90931428471816,913.5856015416713,1293.8001495614626,1567.3964889601557,1358.1092085248188,1482.4967650342614,1748.7598013310833,1598.9867550269946,1354.724335132797,995.9468471978018,611.783869468161,209.56941214275642,0.0,0.0,0.0,0.0,0.0,0.0,0.0,0.0,0.0,0.0,0.0,137.07994785826028,507.140582798998,922.3295631806392,1271.5174014514191,1362.057638234668,1563.4473521532957,1507.0358597066493,1487.8558532812078,1336.390723829614,1163.7713730976538,897.5083368008324,608.6811277835587,228.74871147118648,0.0,0.0,0.0,0.0,0.0,0.0,0.0,0.0,0.0,0.0,0.0,131.43872790389455,497.2680943303524,902.585293340359,1243.312008776602,1508.164386536327,1263.3377032272901,1054.0504227919532,1693.7582603245232,258.08333807269264,407.8556772797703,458.3445251616423,634.0666175782044,212.9535784377669,0.0,0.0,0.0,0.0,0.0,0.0,0.0,0.0,0.0,0.0,0.0,132.28512302615272,499.8065726001159,910.7649915644884,1253.4659218556558,1504.4973814368855,1654.5518523513824,1121.4629305369224,1052.6404713518673,1573.8833969397683,1334.4165089746891,1019.6395467479313,634.6301738960321,241.72394162443427,1.6920831475052835,0.0,0.0,0.0,0.0,0.0,0.0,0.0,0.0,0.0,0.0,124.66968821686234,507.7041391168256,936.9968764813924,1295.492232708968,1551.037092511897,1698.2716605462226,1580.9352754312313,1494.9077317726706,916.9704749336928,1189.7204192101276,947.4329212678656,597.6808195822466,236.64698508490739,1.6920831475052835,0.0,0.0,0.0,0.0,0.0,0.0,0.0,0.0,0.0,0.0,119.8748633847548,481.1908295895135,759.2998621128944,1150.2325866265785,1421.290447755508,1368.5452533112918,1411.135827579443,1027.8192449720602,1251.2095752933114,1054.0504227919532,920.637480033134,596.8344244599884,82.36124565613056,0.0,0.0,0.0,0.0,0.0,0.0,0.0,0.0,0.0,0.0,0.0,30.462446334172643,161.61904253064782,453.2668615251043,524.9099306873422,1072.948297509975,1496.5998149201762,1396.469221375701,1388.853786566411,1262.7734398124514,969.4335376704896,673.8365818691726,513.9096224860301,197.72270881918612,0.0,0.0,0.0,0.0,0.0,0.0,0.0,0.0,0.0,0.0,0.0,123.54116138718477,315.6226502520052,488.80626439880376,846.1738008937131,1285.0561879224947,1295.2108080985595,1209.4646890504075,1508.7279428541547,1490.112199843552,1115.539578875137,886.5080285995202,458.3445251616423,162.74756936032537,0.0,0.0,0.0,0.0,0.0,0.0,0.0,0.0,0.0,0.0,0.0,105.48968179142113,482.3193564191909,886.7901603069396,1234.0037837227949,1126.8220187838685,1309.5952825948825,569.4754269074291,1619.2952882821137,1437.367712496347,1043.8965097128994,267.3908560294884,117.89994143281906,0.0,0.0,0.0,0.0,0.0,0.0,0.0,0.0,0.0,0.0,0.0,0.0,122.6954733619377,482.88361983402984,887.6365554291976,1244.7219602166874,1518.8825630302194,934.7405299190483,1527.3443929617679,1542.2931308729292,983.2544558489843,1228.3625637684293,800.7626166483791,535.0638437663961,153.721476013938,0.0,0.0,0.0,0.0,0.0,0.0,0.0,0.0,0.0,0.0,0.0,115.36146316305559,489.65265952106193,923.4580900103168,1134.437453593159,1316.082897671506,1389.6994745916575,1134.1553218857398,1077.4616977316741,1340.903416954302,1360.9298185020016,920.9196117405533,600.5014295594294,234.95419484039095,1.6920831475052835,0.0,0.0,0.0,0.0,0.0,0.0,0.0,0.0,0.0,0.0,118.74633655507724,484.29357127411566,907.9443815873057,1270.1074500113334,1531.010690964198,1687.2713523449106,1534.9598277710581,1727.3234483432984,1590.8070568028656,1370.2380435558082,1042.768689980233,636.0408324331289,215.77418841494975,0.0,0.0,0.0,0.0,0.0,0.0,0.0,0.0,0.0,0.0,0.0,116.77212170015257,482.3193564191909,793.4293135465082,1094.948913912599,1020.20381016277,419.70238060334054,277.54476910854214,683.4262315333877,1343.724734028496,984.6644072890705,810.3529734096053,631.8095639188491,173.7478775616374,0.0,0.0,0.0,0.0,0.0,0.0,0.0,0.0,0.0,0.0,0.0,100.41272525189423,339.8796132169733,924.3044851325748,525.7563258096004,1246.414043364193,1239.081447359333,291.6478189944565,424.21507372802864,809.506578287347,785.8138787372177,627.0147390867418,349.46996997819946,68.25819577021629,0.0,0.0,0.0,0.0,0.0,0.0,0.0,0.0,0.0,0.0,0.0,51.61666761453853,359.3417513498339,130.31090817122805,349.7513945886078,419.70238060334054,796.249923523691,831.7893263973905,923.4580900103168,975.9204456501024,986.638622143995,124.10542480202356,312.2377768599836,194.3378354271645,0.0,0.0,0.0,0.0,0.0,0.0,0.0,0.0,0.0,0.0,0.0,37.795749436043636,285.72446733267134,431.26695221949126,719.8120295293455,1646.0907295168454,1383.2125666120446,1803.4792106302245,1191.1310777472245,747.7359975937546,1307.0568043251187,1062.7943844309214,644.2205306572582,224.51815005391782,0.0,0.0,0.0,0.0,0.0,0.0,0.0,0.0,0.0,0.0,0.0,94.4893735901091,493.6017963279224,962.0995274716076,1384.3403863447113,1665.2700288452752,732.2222891707434,1521.138909592563,1790.5039804769767,1646.090022419834,1422.9825309030134,1083.948605711287,491.6268743759867,205.90240704331532,0.0,0.0,0.0,0.0,0.0,0.0,0.0,0.0,0.0,0.0,0.0,102.66907181423828,485.70352271420165,931.6377882344459,1301.1334526633334,1560.0624787612733,1716.3224330449752,1232.8752568931175,1743.1185813767174,1080.282307708857,1386.5974400040664,1045.870724567824,633.7844858707849,228.4672868607782,0.0,0.0,0.0,0.0,0.0,0.0,0.0,0.0,0.0,0.0,0.0,108.31029176860396,472.7289996579648,770.3001703142064,1157.2837580210305,1363.468296771765,1523.9595195697461,1729.0155314908036,1687.2706452478994,776.505653683411,1014.8447219158237,1027.537113264641,623.3484410843117,198.85123564886368,0.0,0.0,0.0,0.0,0.0,0.0,0.0,0.0,0.0,0.0,0.0,104.36115496174357,464.8314331412551,889.3286385767032,1255.158005003161,1517.4719044931226,1673.4504341664153,1727.3234483432984,1713.2203984573835,1580.9352754312313,1360.3655550871624,1036.281074903609,625.3226559392364,221.97967178415428,0.0,0.0,0.0,0.0,0.0,0.0,0.0,0.0,0.0,0.0,0.0,93.0794221500232,468.21630653327685,917.8168700559512,1292.3894910243655,1153.6174600186,622.2199142546342,1800.0943372382026,1738.32375654461,1669.7834290669746,1439.0597956438519,1096.359572449696,647.041140634441,206.74880216557355,0.0,0.0,0.0,0.0,0.0,0.0,0.0,0.0,0.0,0.0,0.0,83.77119709621645,466.24209167835215,856.0462893623586,894.9698585310688,417.16390233357697,1064.4871746754377,1531.2928226716172,1386.8795717114858,1147.1298449419762,1141.2064932801911,776.2235219759916,524.9099306873422,204.7738802136378,0.0,0.0,0.0,0.0,0.0,0.0,0.0,0.0,0.0,0.0,0.0,78.12997714185074,381.34236775245796,789.4801767396476,1184.6441697676116,1308.1853311547964,1526.4979978395095,1770.1961543188684,1483.0610284491001,1365.724643334109,1262.7734398124514,1034.871123463523,540.4229320133422,194.6199671345839,0.0,0.0,0.0,0.0,0.0,0.0,0.0,0.0,0.0,0.0,0.0,80.9505871190336,464.54930143383575,925.4323048652417,1298.8771061009895,1562.601664128048,1717.4509598746527,1237.670788822236,224.2360183464984,774.8135705359058,1326.23681075056,1093.8210941799325,566.6548169302463,199.97905538153026,0.0,0.0,0.0,0.0,0.0,0.0,0.0,0.0,0.0,0.0,0.0,90.54094388025972,367.8035812813826,762.4026037974967,1000.7416720299092,1375.8785564131629,870.7128955661008,719.2477661145067,1018.7931516256727,1129.9247604684708,962.0995274716076,639.4257058251508,288.8272090172736,117.05425340757195,0.0,0.0,0.0,0.0,0.0,0.0,0.0,0.0,0.0,0.0,0.0,44.56549622008693,316.4690453742634,347.4957551232748,366.3936298412967,1054.0504227919532,899.2011270453487,919.2268214960367,1381.2383517571204,1300.2877646380866,1239.6450036771607,731.0944694380769,305.4687371729514,199.41479196669147,0.0,0.0,0.0,0.0,0.0,0.0,0.0,0.0,0.0,0.0,0.0,84.05332880363585,454.67752006220115,668.7596253296458,667.6310984999683,1580.6531437238116,1293.5180178540434,1284.7740562150755,1755.810972725535,1611.679146375812,1390.2637380064966,736.7356893924426,467.9341748258573,64.87332237819464,0.0,0.0,0.0,0.0,0.0,0.0,0.0,0.0,0.0,0.0,0.0,82.36124565613056,454.95965176962056,900.0468150705957,1273.4916163063438,1538.3447011630801,1691.7840454695986,1746.5034547687396,1706.7327833807597,630.3996124787633,1381.5204834645394,1027.2549815572218,613.7580843230854,199.1326602592721,0.0,0.0,0.0,0.0,0.0,0.0,0.0,0.0,0.0,0.0,0.0,76.15576228692606,450.1648269375131,900.893210192854,1270.9531380365804,1531.857086086456,1686.7070889300714,1337.5192506592916,1781.7607259350193,1573.8833969397683,1357.2628134025604,1032.614069804168,612.9116892008274,171.4915309992933,0.0,0.0,0.0,0.0,0.0,0.0,0.0,0.0,0.0,0.0,0.0,71.07880574739914,354.8290582251458,898.63686363051,1274.0558797211827,1543.4216577026066,1696.2967385942866,1750.451884478589,1710.6819201876206,1577.5504020392093,1004.6908088367695,1023.8701081652,599.0914781193436,196.03062567168087,0.0,0.0,0.0,0.0,0.0,0.0,0.0,0.0,0.0,0.0,0.0,42.59057426815117,238.621199939832,768.8902188741206,723.4790346287866,1110.1804906281911,1380.1098249274426,588.373301625451,539.8586685985035,695.5550665643774,1193.3874243095686,1051.2298128147702,610.6553426384834,199.6969236741108,0.0,0.0,0.0,0.0,0.0,0.0,0.0,0.0,0.0,0.0,0.0
...